.SUBCKT 2_PORT_TEST 1 2
R1N 1 10 -50
R1P 10 11 100
R2N 2 20 -50
R2P 20 21 100

*S11 FREQ DB PHASE
E11 11 12 FREQ {V(10, 0)}= DB
+ (100000000.0, -26.991483551883118, -1.7278262790638204)
+ (100990099.00990099, -26.908350654682213, -1.7293797182906678)
+ (101980198.01980197, -26.82607717011811, -1.73093312128369)
+ (102970297.02970298, -26.744646977915096, -1.7324864878128585)
+ (103960396.03960396, -26.66404442113338, -1.7340398176517524)
+ (104950495.04950495, -26.584254288609593, -1.7355931105776459)
+ (105940594.05940594, -26.505261798217266, -1.7371463663714313)
+ (106930693.06930692, -26.427052580910374, -1.7386995848178175)
+ (107920792.07920793, -26.349612665499965, -1.740252765705201)
+ (108910891.08910891, -26.272928464125837, -1.7418059088257771)
+ (109900990.0990099, -26.19698675838674, -1.7433590139755402)
+ (110891089.10891089, -26.121774686092092, -1.744912080954393)
+ (111881188.11881188, -26.047279728602714, -1.7464651095660657)
+ (112871287.12871286, -25.973489698728862, -1.7480180996182357)
+ (113861386.13861386, -25.900392729157254, -1.749571050922521)
+ (114851485.14851485, -25.827977261379175, -1.7511239632945244)
+ (115841584.15841584, -25.75623203509323, -1.7526768365538452)
+ (116831683.16831683, -25.685146078060352, -1.7542296705241585)
+ (117821782.17821783, -25.614708696385083, -1.7557824650331935)
+ (118811881.18811882, -25.54490946520502, -1.757335219912823)
+ (119801980.1980198, -25.475738219766754, -1.7588879349990132)
+ (120792079.20792079, -25.407185046867326, -1.7604406101319487)
+ (121782178.21782178, -25.339240276647715, -1.7619932451560185)
+ (122772277.22772276, -25.27189447471596, -1.7635458399198087)
+ (123762376.23762377, -25.205138434588477, -1.7650983942762375)
+ (124752475.24752475, -25.138963170431726, -1.7666509080824837)
+ (125742574.25742574, -25.07335991009175, -1.7682033812000786)
+ (126732673.26732673, -25.008320088395543, -1.7697558134949112)
+ (127722772.27722773, -24.94383534071446, -1.7713082048372715)
+ (128712871.28712872, -24.87989749677601, -1.7728605551019108)
+ (129702970.2970297, -24.816498574712007, -1.774412864167971)
+ (130693069.30693069, -24.753630775333786, -1.7759651319191472)
+ (131683168.31683168, -24.69128647662363, -1.7775173582436639)
+ (132673267.32673267, -24.629458228431563, -1.7790695430342367)
+ (133663366.33663365, -24.56813874737088, -1.7806216861882556)
+ (134653465.34653467, -24.507320911900294, -1.782173787607652)
+ (135643564.35643566, -24.446997757587823, -1.7837258471990465)
+ (136633663.36633664, -24.387162472546052, -1.7852778648737537)
+ (137623762.37623763, -24.327808393032523, -1.7868298405477467)
+ (138613861.38613862, -24.268928999207837, -1.788381774141797)
+ (139603960.3960396, -24.210517911044764, -1.7899336655814206)
+ (140594059.4059406, -24.15256888438169, -1.7914855147969364)
+ (141584158.41584158, -24.095075807115197, -1.793037321723517)
+ (142574257.42574257, -24.038032695524926, -1.7945890863011813)
+ (143564356.43564355, -23.981433690725154, -1.7961408084748476)
+ (144554455.44554454, -23.925273055239803, -1.7976924881943686)
+ (145544554.45544553, -23.869545169692724, -1.7992441254145446)
+ (146534653.46534652, -23.814244529611365, -1.80079572009518)
+ (147524752.47524753, -23.75936574233766, -1.8023472722010812)
+ (148514851.48514852, -23.704903524042212, -1.8038987817020944)
+ (149504950.4950495, -23.650852696838133, -1.8054502485731738)
+ (150495049.5049505, -23.597208185989487, -1.8070016727943545)
+ (151485148.51485148, -23.543965017212024, -1.8085530543508244)
+ (152475247.52475247, -23.491118314061485, -1.8101043932329404)
+ (153465346.53465346, -23.43866329540658, -1.811655689436231)
+ (154455445.54455444, -23.38659527298311, -1.8132069429614948)
+ (155445544.55445546, -23.334909649026567, -1.8147581538147417)
+ (156435643.56435645, -23.283601913979584, -1.8163093220073168)
+ (157425742.57425743, -23.232667644272233, -1.817860447555849)
+ (158415841.58415842, -23.182102500171432, -1.8194115304823153)
+ (159405940.5940594, -23.131902223697626, -1.8209625708140789)
+ (160396039.6039604, -23.08206263660603, -1.8225135685839133)
+ (161386138.61386138, -23.03257963843011, -1.8240645238299924)
+ (162376237.62376237, -22.983449204584694, -1.8256154365959922)
+ (163366336.63366336, -22.93466738452709, -1.8271663069310762)
+ (164356435.64356434, -22.88623029997341, -1.8287171348899032)
+ (165346534.65346533, -22.838134143168965, -1.8302679205327061)
+ (166336633.66336632, -22.790375175210027, -1.8318186639252874)
+ (167326732.6732673, -22.742949724415425, -1.833369365139055)
+ (168316831.6831683, -22.69585418474652, -1.8349200242510635)
+ (169306930.6930693, -22.649085014272977, -1.8364706413440328)
+ (170297029.7029703, -22.602638733684167, -1.838021216506356)
+ (171287128.71287128, -22.556511924843136, -1.839571749832181)
+ (172277227.72277227, -22.510701229382054, -1.84112224142138)
+ (173267326.73267326, -22.46520334733883, -1.8426726913796072)
+ (174257425.74257427, -22.420015035831895, -1.844223099818344)
+ (175247524.75247526, -22.375133107772914, -1.845773466854888)
+ (176237623.76237625, -22.330554430615624, -1.8473237926124102)
+ (177227722.77227724, -22.28627592513977, -1.84887407721998)
+ (178217821.78217822, -22.242294564269255, -1.8504243208125597)
+ (179207920.7920792, -22.19860737192253, -1.8519745235310792)
+ (180198019.8019802, -22.155211421895395, -1.8535246855224492)
+ (181188118.81188118, -22.11210383677375, -1.8550748069395755)
+ (182178217.82178217, -22.069281786876527, -1.8566248879413916)
+ (183168316.83168316, -22.02674248922711, -1.8581749286928906)
+ (184158415.84158415, -21.984483206552603, -1.859724929365171)
+ (185148514.85148513, -21.94250124630981, -1.8612748901353957)
+ (186138613.86138612, -21.900793959737356, -1.862824811186923)
+ (187128712.8712871, -21.859358740933136, -1.8643746927092584)
+ (188118811.8811881, -21.818193025956, -1.8659245348980804)
+ (189108910.8910891, -21.777294291950916, -1.8674743379553225)
+ (190099009.9009901, -21.73666005629738, -1.8690241020891598)
+ (191089108.9108911, -21.69628787577961, -1.8705738275140233)
+ (192079207.92079207, -21.6561753457787, -1.872123514450668)
+ (193069306.93069306, -21.616320099484984, -1.873673163126172)
+ (194059405.94059408, -21.576719807131074, -1.8752227737739726)
+ (195049504.95049506, -21.53737217524451, -1.8767723466338808)
+ (196039603.96039605, -21.49827494591877, -1.878321881952131)
+ (197029702.97029704, -21.45942589610347, -1.879871379981376)
+ (198019801.98019803, -21.42082283691178, -1.8814208409807458)
+ (199009900.990099, -21.382463612945685, -1.882970265215853)
+ (200000000.0, -21.344346101637427, -1.8845196529588322)
+ (200990099.009901, -21.30646821260806, -1.886069004488349)
+ (201980198.01980197, -21.268827887040768, -1.8876183200896341)
+ (202970297.02970296, -21.23142309707072, -1.8891676000545183)
+ (203960396.03960395, -21.194251845188973, -1.8907168446814557)
+ (204950495.04950494, -21.157312163661093, -1.8922660542755414)
+ (205940594.05940592, -21.12060211396015, -1.8938152291485255)
+ (206930693.0693069, -21.084119786212607, -1.89536436961888)
+ (207920792.0792079, -21.047863298658548, -1.8969134760117825)
+ (208910891.08910888, -21.011830797123807, -1.8984625486591555)
+ (209900990.0990099, -20.976020454505186, -1.9000115878997084)
+ (210891089.1089109, -20.940430470267522, -1.9015605940789346)
+ (211881188.11881188, -20.905059069953104, -1.9031095675491558)
+ (212871287.12871286, -20.86990450470171, -1.90465850866954)
+ (213861386.13861385, -20.83496505078279, -1.9062074178061328)
+ (214851485.14851487, -20.80023900913773, -1.9077562953318687)
+ (215841584.15841585, -20.765724704933177, -1.9093051416266305)
+ (216831683.16831684, -20.731420487124566, -1.9108539570772154)
+ (217821782.17821783, -20.697324728029347, -1.912402742077405)
+ (218811881.18811882, -20.663435822910202, -1.9139514970279932)
+ (219801980.1980198, -20.62975218956788, -1.9155002223367819)
+ (220792079.2079208, -20.59627226794282, -1.917048918418612)
+ (221782178.21782178, -20.56299451972596, -1.9185975856954225)
+ (222772277.22772276, -20.529917427978464, -1.920146224596226)
+ (223762376.23762375, -20.497039496759495, -1.9216948355571597)
+ (224752475.24752474, -20.464359250762637, -1.9232434190214973)
+ (225742574.25742573, -20.43187523496031, -1.9247919754397074)
+ (226732673.2673267, -20.39958601425566, -1.9263405052694118)
+ (227722772.2772277, -20.36749017314272, -1.927889008975474)
+ (228712871.2871287, -20.33558631537343, -1.9294374870299953)
+ (229702970.2970297, -20.30387306363219, -1.9309859399123397)
+ (230693069.3069307, -20.27234905921748, -1.9325343681091467)
+ (231683168.31683168, -20.241012961730114, -1.9340827721143856)
+ (232673267.32673267, -20.20986344876856, -1.935631152429336)
+ (233663366.33663365, -20.178899215630505, -1.937179509562666)
+ (234653465.34653464, -20.148118975020783, -1.9387278440304019)
+ (235643564.35643563, -20.117521456765935, -1.9402761563559845)
+ (236633663.3663366, -20.087105407534025, -1.9418244470702686)
+ (237623762.37623763, -20.056869590561305, -1.9433727167115813)
+ (238613861.38613862, -20.026812785383726, -1.944920965825715)
+ (239603960.3960396, -19.996933787574765, -1.9464691949659612)
+ (240594059.4059406, -19.967231408488363, -1.9480174046931154)
+ (241584158.41584158, -19.93770447500716, -1.9495655955755435)
+ (242574257.42574257, -19.9083518292963, -1.9511137681891504)
+ (243564356.43564355, -19.879172328561815, -1.9526619231174522)
+ (244554455.44554454, -19.850164844814433, -1.9542100609515582)
+ (245544554.45544553, -19.821328264637835, -1.9557581822902141)
+ (246534653.46534652, -19.792661488962008, -1.9573062877398337)
+ (247524752.47524753, -19.76416343284088, -1.9588543779145)
+ (248514851.48514852, -19.73583302523459, -1.9604024534359938)
+ (249504950.4950495, -19.707669208796176, -1.961950514933824)
+ (250495049.5049505, -19.679670939662596, -1.9634985630452346)
+ (251485148.51485148, -19.651837187249722, -1.9650465984152625)
+ (252475247.52475247, -19.624166934051658, -1.9665946216966983)
+ (253465346.53465346, -19.596659175443953, -1.968142633550168)
+ (254455445.54455444, -19.569312919490656, -1.9696906346441139)
+ (255445544.55445543, -19.542127186755355, -1.9712386256548489)
+ (256435643.56435642, -19.51510101011578, -1.972786607266549)
+ (257425742.57425743, -19.48823343458201, -1.9743345801712942)
+ (258415841.58415842, -19.461523517118483, -1.97588254506908)
+ (259405940.5940594, -19.434970326469138, -1.9774305026678412)
+ (260396039.6039604, -19.408572942986307, -1.978978453683485)
+ (261386138.61386138, -19.382330458462587, -1.980526398839882)
+ (262376237.62376237, -19.356241975966267, -1.9820743388689275)
+ (263366336.63366336, -19.330306609679603, -1.9836222745105225)
+ (264356435.64356434, -19.30452348474055, -1.9851702065126309)
+ (265346534.65346533, -19.278891737087164, -1.986718135631273)
+ (266336633.66336632, -19.25341051330529, -1.9882660626305626)
+ (267326732.67326733, -19.228078970478872, -1.989813988282723)
+ (268316831.68316832, -19.202896276043372, -1.9913619133681044)
+ (269306930.69306934, -19.177861607641674, -1.9929098386751987)
+ (270297029.70297027, -19.152974152983, -1.9944577650006903)
+ (271287128.7128713, -19.12823310970408, -1.9960056931494303)
+ (272277227.72277224, -19.103637685233515, -1.9975536239344969)
+ (273267326.7326733, -19.079187096658018, -1.9991015581771987)
+ (274257425.7425742, -19.054880570591585, -2.0006494967070916)
+ (275247524.75247526, -19.030717343047037, -2.002197440362006)
+ (276237623.7623762, -19.00669665930962, -2.0037453899880626)
+ (277227722.77227724, -18.9828177738136, -2.0052933464397036)
+ (278217821.7821782, -18.959079950020275, -2.0068413105796816)
+ (279207920.7920792, -18.93548246029903, -2.0083892832791372)
+ (280198019.8019802, -18.912024585810062, -2.009937265417552)
+ (281188118.8118812, -18.8887056163894, -2.0114852578828097)
+ (282178217.8217822, -18.865524850436145, -2.013033261571207)
+ (283168316.83168316, -18.84248159480148, -2.0145812773874727)
+ (284158415.84158415, -18.819575164680106, -2.0161293062447787)
+ (285148514.85148513, -18.796804883503125, -2.017677349064781)
+ (286138613.8613861, -18.77417008283338, -2.0192254067776085)
+ (287128712.8712871, -18.751670102262278, -2.0207734803219117)
+ (288118811.88118815, -18.72930428930873, -2.0223215706448627)
+ (289108910.8910891, -18.707071999319773, -2.0238696787021784)
+ (290099009.9009901, -18.684972595372926, -2.025417805458153)
+ (291089108.91089106, -18.663005448180577, -2.0269659518856495)
+ (292079207.9207921, -18.641169935995524, -2.028514118966146)
+ (293069306.93069303, -18.619465444518973, -2.030062307689745)
+ (294059405.9405941, -18.597891366809357, -2.0316105190551785)
+ (295049504.950495, -18.57644710319344, -2.033158754069851)
+ (296039603.96039605, -18.5551320611784, -2.034707013749842)
+ (297029702.970297, -18.53394565536612, -2.0362552991199236)
+ (298019801.980198, -18.51288730736835, -2.0378036112135955)
+ (299009900.990099, -18.491956445723858, -2.039351951073081)
+ (300000000.0, -18.47115250581662, -2.040900319749353)
+ (300990099.009901, -18.450474929795927, -2.0424487183021687)
+ (301980198.019802, -18.42992316649734, -2.043997147800063)
+ (302970297.02970296, -18.409496671365552, -2.045545609320382)
+ (303960396.03960395, -18.389194906378204, -2.0470941039493002)
+ (304950495.04950494, -18.36901733997116, -2.0486426327818372)
+ (305940594.0594059, -18.348963446965268, -2.0501911969218587)
+ (306930693.0693069, -18.329032708494037, -2.0517397974821265)
+ (307920792.0792079, -18.309224611932883, -2.0532884355842884)
+ (308910891.08910894, -18.289538650829456, -2.0548371123589093)
+ (309900990.0990099, -18.269974324835164, -2.056385828945494)
+ (310891089.1089109, -18.250531139637985, -2.057934586492482)
+ (311881188.11881185, -18.231208606896264, -2.0594833861572965)
+ (312871287.1287129, -18.21200624417394, -2.0610322291063308)
+ (313861386.1386138, -18.192923574876477, -2.062581116514983)
+ (314851485.14851487, -18.173960128188423, -2.064130049567683)
+ (315841584.1584158, -18.155115439011542, -2.0656790294578813)
+ (316831683.16831684, -18.13638904790426, -2.0672280573880863)
+ (317821782.17821777, -18.11778050102227, -2.0687771345698778)
+ (318811881.1881188, -18.09928935005988, -2.0703262622239325)
+ (319801980.1980198, -18.0809151521925, -2.0718754415800142)
+ (320792079.2079208, -18.06265747002019, -2.073424673877018)
+ (321782178.2178218, -18.044515871512154, -2.0749739603629744)
+ (322772277.22772276, -18.026489929952064, -2.0765233022950778)
+ (323762376.23762375, -18.008579223884293, -2.0780727009396736)
+ (324752475.24752474, -17.990783337061483, -2.0796221575723197)
+ (325742574.2574257, -17.97310185839256, -2.0811716734777574)
+ (326732673.2673267, -17.955534381891706, -2.0827212499499654)
+ (327722772.2772277, -17.938080506628406, -2.0842708882921466)
+ (328712871.2871287, -17.92073983667834, -2.0858205898167665)
+ (329702970.29702973, -17.903511981074885, -2.087370355845556)
+ (330693069.30693066, -17.886396553761628, -2.08892018770954)
+ (331683168.3168317, -17.86939317354581, -2.090470086749032)
+ (332673267.32673264, -17.852501464052192, -2.0920200543136747)
+ (333663366.3366337, -17.83572105367823, -2.093570091762432)
+ (334653465.3465346, -17.81905157554952, -2.095120200463648)
+ (335643564.35643566, -17.802492667476443, -2.0966703817949948)
+ (336633663.3663366, -17.786043971911255, -2.09822063714355)
+ (337623762.37623763, -17.769705135906044, -2.0997709679057843)
+ (338613861.3861386, -17.75347581107147, -2.1013213754875757)
+ (339603960.3960396, -17.737355653536117, -2.1028718613042376)
+ (340594059.4059406, -17.721344323906585, -2.104422426780525)
+ (341584158.4158416, -17.705441487228335, -2.105973073350649)
+ (342574257.42574257, -17.689646812947224, -2.1075238024583145)
+ (343564356.43564355, -17.673959974871487, -2.1090746155566817)
+ (344554455.44554454, -17.658380651134834, -2.1106255141084507)
+ (345544554.4554455, -17.64290852415965, -2.1121764995858214)
+ (346534653.4653465, -17.627543280621417, -2.113727573470542)
+ (347524752.4752475, -17.612284611413255, -2.1152787372539046)
+ (348514851.48514855, -17.597132211611427, -2.1168299924367675)
+ (349504950.4950495, -17.582085780441336, -2.1183813405295804)
+ (350495049.5049505, -17.56714502124407, -2.1199327830523695)
+ (351485148.51485145, -17.55230964144373, -2.1214843215347843)
+ (352475247.5247525, -17.537579352515213, -2.1230359575161084)
+ (353465346.5346534, -17.522953869952573, -2.124587692545247)
+ (354455445.5445545, -17.508432913237918, -2.1261395281807642)
+ (355445544.5544554, -17.49401620581107, -2.1276914659909067)
+ (356435643.56435645, -17.479703475039607, -2.1292435075535927)
+ (357425742.5742574, -17.465494452189432, -2.130795654456438)
+ (358415841.5841584, -17.451388872396063, -2.132347908296779)
+ (359405940.5940594, -17.437386474636266, -2.133900270681667)
+ (360396039.6039604, -17.42348700170026, -2.1354527432279133)
+ (361386138.6138614, -17.409690200164622, -2.1370053275620626)
+ (362376237.62376237, -17.39599582036542, -2.1385580253204437)
+ (363366336.63366336, -17.382403616372034, -2.140110838149159)
+ (364356435.64356434, -17.368913345961538, -2.1416637677041206)
+ (365346534.65346533, -17.355524770593274, -2.1432168156510376)
+ (366336633.6633663, -17.34223765538427, -2.1447699836654524)
+ (367326732.6732673, -17.329051769084973, -2.146323273432749)
+ (368316831.6831683, -17.315966884055364, -2.147876686648154)
+ (369306930.6930693, -17.302982776241763, -2.1494302250167667)
+ (370297029.70297027, -17.290099225153906, -2.150983890253572)
+ (371287128.71287125, -17.277316013842537, -2.152537684083432)
+ (372277227.72277224, -17.26463292887757, -2.1540916082411363)
+ (373267326.7326732, -17.252049760326436, -2.1556456644713697)
+ (374257425.7425743, -17.239566301733205, -2.157199854528773)
+ (375247524.75247526, -17.22718235009782, -2.1587541801779255)
+ (376237623.76237625, -17.21489770585601, -2.1603086431933622)
+ (377227722.77227724, -17.20271217285941, -2.1618632453595947)
+ (378217821.7821782, -17.19062555835643, -2.1634179884711258)
+ (379207920.7920792, -17.17863767297314, -2.16497287433245)
+ (380198019.8019802, -17.166748330694745, -2.166527904758079)
+ (381188118.8118812, -17.15495734884772, -2.1680830815725454)
+ (382178217.8217822, -17.143264548081827, -2.169638406610426)
+ (383168316.83168316, -17.131669752352988, -2.1711938817163396)
+ (384158415.84158415, -17.120172788906352, -2.17274950874498)
+ (385148514.85148513, -17.10877348825974, -2.174305289561103)
+ (386138613.8613861, -17.097471684187543, -2.175861226039561)
+ (387128712.8712871, -17.086267213704986, -2.1774173200653206)
+ (388118811.8811881, -17.075159917052712, -2.17897357353343)
+ (389108910.8910891, -17.064149637681872, -2.1805299883490896)
+ (390099009.90099007, -17.053236222239466, -2.1820865664276345)
+ (391089108.91089106, -17.042419520554095, -2.1836433096945442)
+ (392079207.92079204, -17.03169938562207, -2.1852002200854614)
+ (393069306.93069303, -17.02107567359394, -2.1867572995462066)
+ (394059405.9405941, -17.010548243761253, -2.18831455003279)
+ (395049504.95049506, -17.000116958543817, -2.189871973511412)
+ (396039603.96039605, -16.989781683477204, -2.1914295719584955)
+ (397029702.97029704, -16.9795422872007, -2.1929873473606762)
+ (398019801.980198, -16.96939864144551, -2.194545301714829)
+ (399009900.990099, -16.95935062102331, -2.196103437028075)
+ (400000000.0, -16.949398103815263, -2.197661755317794)
+ (400990099.009901, -16.939540970761236, -2.1992202586116365)
+ (401980198.019802, -16.929779105849487, -2.2007789489475327)
+ (402970297.02970296, -16.9201123961064, -2.2023378283736976)
+ (403960396.03960395, -16.910540731587062, -2.2038968989486682)
+ (404950495.04950494, -16.901064005365523, -2.2054561627412825)
+ (405940594.0594059, -16.891682113526088, -2.2070156218307138)
+ (406930693.0693069, -16.882394955154254, -2.2085752783064687)
+ (407920792.0792079, -16.87320243232849, -2.2101351342684015)
+ (408910891.0891089, -16.86410445011213, -2.2116951918267342)
+ (409900990.0990099, -16.85510091654539, -2.2132554531020583)
+ (410891089.10891086, -16.846191742638194, -2.2148159202253366)
+ (411881188.11881185, -16.837376842362836, -2.2163765953379393)
+ (412871287.12871283, -16.828656132647215, -2.217937480591636)
+ (413861386.1386138, -16.82002953336828, -2.219498578148607)
+ (414851485.14851487, -16.81149696734593, -2.221059890181467)
+ (415841584.15841585, -16.80305836033693, -2.222621418873261)
+ (416831683.16831684, -16.794713641029524, -2.22418316641748)
+ (417821782.1782178, -16.786462741038022, -2.225745135018073)
+ (418811881.1881188, -16.77830559489782, -2.227307326889457)
+ (419801980.1980198, -16.77024214006088, -2.228869744256536)
+ (420792079.2079208, -16.76227231689119, -2.2304323893546814)
+ (421782178.2178218, -16.75439606866078, -2.2319952644297856)
+ (422772277.22772276, -16.746613341545963, -2.23355837173824)
+ (423762376.23762375, -16.738924084623836, -2.235121713546954)
+ (424752475.24752474, -16.731328249869172, -2.2366852921333646)
+ (425742574.2574257, -16.723825792151533, -2.2382491097854516)
+ (426732673.2673267, -16.716416669232657, -2.239813168801741)
+ (427722772.2772277, -16.709100841764343, -2.241377471491318)
+ (428712871.2871287, -16.701878273286287, -2.2429420201738433)
+ (429702970.2970297, -16.694748930224538, -2.244506817179538)
+ (430693069.30693066, -16.687712781890095, -2.2460718648492266)
+ (431683168.31683165, -16.680769800477826, -2.2476371655343264)
+ (432673267.32673264, -16.673919961065707, -2.249202721596857)
+ (433663366.3366336, -16.667163241614286, -2.2507685354094584)
+ (434653465.34653467, -16.66049962296652, -2.252334609355393)
+ (435643564.35643566, -16.653929088847914, -2.253900945828561)
+ (436633663.36633664, -16.64745162586678, -2.2554675472334957)
+ (437623762.37623763, -16.6410672235152, -2.257034415985397)
+ (438613861.3861386, -16.63477587416975, -2.258601554510128)
+ (439603960.3960396, -16.628577573092834, -2.2601689652441967)
+ (440594059.4059406, -16.62247231843447, -2.26173665063482)
+ (441584158.4158416, -16.61646011123389, -2.2633046131398875)
+ (442574257.42574257, -16.610540955421836, -2.2648728552279893)
+ (443564356.43564355, -16.604714857823105, -2.266441379378421)
+ (444554455.44554454, -16.59898182815916, -2.2680101880811874)
+ (445544554.4554455, -16.59334187905134, -2.2695792838370314)
+ (446534653.4653465, -16.58779502602408, -2.271148669157398)
+ (447524752.4752475, -16.582341287508715, -2.272718346564501)
+ (448514851.4851485, -16.576980684847314, -2.274288318591282)
+ (449504950.4950495, -16.571713242297044, -2.2758585877814466)
+ (450495049.50495046, -16.56653898703466, -2.2774291566894633)
+ (451485148.51485145, -16.561457949161415, -2.2790000278805658)
+ (452475247.52475244, -16.55647016170819, -2.280571203930776)
+ (453465346.5346534, -16.551575660640943, -2.2821426874268966)
+ (454455445.5445544, -16.546774484866653, -2.2837144809665286)
+ (455445544.55445546, -16.542066676239163, -2.285286587158071)
+ (456435643.56435645, -16.537452279565688, -2.286859008620737)
+ (457425742.57425743, -16.532931342613587, -2.2884317479845535)
+ (458415841.5841584, -16.528503916117266, -2.290004807890378)
+ (459405940.5940594, -16.524170053785532, -2.2915781909898945)
+ (460396039.6039604, -16.519929812309226, -2.293151899945624)
+ (461386138.6138614, -16.515783251369147, -2.2947259374309446)
+ (462376237.62376237, -16.511730433644466, -2.2963003061300777)
+ (463366336.63366336, -16.507771424821147, -2.297875008738112)
+ (464356435.64356434, -16.50390629360087, -2.2994500479609945)
+ (465346534.65346533, -16.500135111710332, -2.301025426515554)
+ (466336633.6633663, -16.496457953910802, -2.3026011471294994)
+ (467326732.6732673, -16.492874898007976, -2.3041772125414215)
+ (468316831.6831683, -16.48938602486212, -2.3057536255008113)
+ (469306930.6930693, -16.485991418398754, -2.3073303887680514)
+ (470297029.70297027, -16.482691165619382, -2.3089075051144397)
+ (471287128.71287125, -16.479485356612784, -2.3104849773221785)
+ (472277227.72277224, -16.476374084566572, -2.312062808184398)
+ (473267326.7326732, -16.473357445779055, -2.313641000505146)
+ (474257425.7425742, -16.470435539671367, -2.3152195570994007)
+ (475247524.75247526, -16.467608468800236, -2.3167984807930777)
+ (476237623.76237625, -16.464876338870766, -2.3183777744230354)
+ (477227722.77227724, -16.46223925874979, -2.3199574408370762)
+ (478217821.7821782, -16.459697340479412, -2.321537482893963)
+ (479207920.7920792, -16.457250699291073, -2.3231179034634084)
+ (480198019.8019802, -16.4548994536199, -2.324698705426091)
+ (481188118.8118812, -16.45264372511934, -2.326279891673665)
+ (482178217.8217822, -16.450483638676296, -2.327861465108746)
+ (483168316.83168316, -16.4484193224266, -2.3294434286449373)
+ (484158415.84158415, -16.44645090777073, -2.331025785206829)
+ (485148514.85148513, -16.44457852939012, -2.3326085377299854)
+ (486138613.8613861, -16.44280232526374, -2.334191689160977)
+ (487128712.8712871, -16.44112243668492, -2.3357752424573617)
+ (488118811.8811881, -16.439539008278853, -2.337359200587711)
+ (489108910.8910891, -16.43805218802028, -2.3389435665315936)
+ (490099009.90099007, -16.436662127251665, -2.3405283432795865)
+ (491089108.91089106, -16.43536898070163, -2.3421135338332912)
+ (492079207.92079204, -16.434172906504074, -2.343699141205316)
+ (493069306.93069303, -16.433074066217344, -2.3452851684192995)
+ (494059405.940594, -16.43207262484427, -2.346871618509903)
+ (495049504.950495, -16.43116875085199, -2.3484584945228173)
+ (496039603.96039605, -16.430362616192888, -2.350045799514765)
+ (497029702.97029704, -16.429654396325454, -2.351633536553502)
+ (498019801.980198, -16.429044270235828, -2.3532217087178338)
+ (499009900.990099, -16.428532420459735, -2.354810319097598)
+ (500000000.0, -16.428119033104693, -2.3563993707936746)
+ (500990099.009901, -16.427804297873084, -2.3579888669180042)
+ (501980198.019802, -16.427588408085164, -2.359578810593575)
+ (502970297.02970296, -16.427471560702873, -2.361169204954417)
+ (503960396.03960395, -16.42745395635403, -2.3627600531456263)
+ (504950495.04950494, -16.427535799357006, -2.364351358323355)
+ (505940594.0594059, -16.427717297745794, -2.3659431236548163)
+ (506930693.0693069, -16.42799866329569, -2.367535352318283)
+ (507920792.0792079, -16.428380111549348, -2.369128047503091)
+ (508910891.0891089, -16.428861861843455, -2.3707212124096473)
+ (509900990.0990099, -16.429444137335626, -2.372314850249417)
+ (510891089.10891086, -16.43012716503241, -2.373908964244948)
+ (511881188.11881185, -16.430911175816973, -2.375503557629843)
+ (512871287.12871283, -16.431796404478078, -2.377098633648784)
+ (513861386.1386138, -16.43278308973911, -2.3786941955575243)
+ (514851485.1485148, -16.4338714742878, -2.3802902466228906)
+ (515841584.15841585, -16.43506180480658, -2.3818867901227847)
+ (516831683.16831684, -16.436354332003305, -2.383483829346173)
+ (517821782.1782178, -16.43774931064265, -2.3850813675931115)
+ (518811881.1881188, -16.439246999578142, -2.3866794081747162)
+ (519801980.1980198, -16.440847661784563, -2.388277954413197)
+ (520792079.2079208, -16.442551564391103, -2.389877009641817)
+ (521782178.2178218, -16.44435897871506, -2.3914765772049265)
+ (522772277.22772276, -16.44627018029618, -2.3930766604579494)
+ (523762376.23762375, -16.448285448931493, -2.3946772627673765)
+ (524752475.24752474, -16.450405068710975, -2.396278387510787)
+ (525742574.2574257, -16.452629328053526, -2.3978800380768126)
+ (526732673.2673267, -16.454958519743922, -2.399482217865169)
+ (527722772.2772277, -16.45739294097024, -2.401084930286637)
+ (528712871.2871287, -16.459932893361916, -2.402688178763065)
+ (529702970.2970297, -16.46257868302858, -2.4042919667273708)
+ (530693069.30693066, -16.46533062059945, -2.405896297623538)
+ (531683168.31683165, -16.468189021263576, -2.4075011749066073)
+ (532673267.32673264, -16.471154204810574, -2.409106602042687)
+ (533663366.3366336, -16.474226495672312, -2.4107125825089386)
+ (534653465.3465346, -16.477406222965087, -2.4123191197935836)
+ (535643564.3564356, -16.480693720532706, -2.4139262173958924)
+ (536633663.36633664, -16.484089326990205, -2.4155338788261926)
+ (537623762.3762376, -16.487593385768477, -2.4171421076058515)
+ (538613861.3861387, -16.491206245159397, -2.418750907267289)
+ (539603960.3960396, -16.494928258362066, -2.420360281353954)
+ (540594059.4059405, -16.49875978352962, -2.421970233420343)
+ (541584158.4158416, -16.502701183816903, -2.423580767031982)
+ (542574257.4257426, -16.506752827428986, -2.425191885765424)
+ (543564356.4356436, -16.510915087670593, -2.426803593208247)
+ (544554455.4455445, -16.515188342996186, -2.4284158929590576)
+ (545544554.4554455, -16.519572977061102, -2.4300287886274607)
+ (546534653.4653466, -16.52406937877347, -2.4316422838340936)
+ (547524752.4752475, -16.52867794234711, -2.433256382210578)
+ (548514851.4851484, -16.533399067355205, -2.4348710873995505)
+ (549504950.4950495, -16.53823315878511, -2.4364864030546394)
+ (550495049.5049505, -16.543180627093818, -2.4381023328404545)
+ (551485148.5148515, -16.54824188826469, -2.439718880432599)
+ (552475247.5247524, -16.553417363864973, -2.441336049517642)
+ (553465346.5346534, -16.558707481104353, -2.442953843793134)
+ (554455445.5445545, -16.564112672894538, -2.4445722669675836)
+ (555445544.5544554, -16.569633377909803, -2.446191322760451)
+ (556435643.5643564, -16.57527004064877, -2.4478110149021575)
+ (557425742.5742574, -16.58102311149706, -2.449431347134058)
+ (558415841.5841584, -16.586893046791065, -2.4510523232084402)
+ (559405940.5940595, -16.592880308882933, -2.452673946888527)
+ (560396039.6039604, -16.59898536620658, -2.45429622194845)
+ (561386138.6138613, -16.605208693344835, -2.455919152173261)
+ (562376237.6237624, -16.611550771097917, -2.457542741358904)
+ (563366336.6336634, -16.618012086552902, -2.459166993312223)