Version 4
SHEET 1 880 680
WIRE -144 -368 -144 -432
WIRE -144 -368 -160 -368
WIRE 16 -368 -144 -368
WIRE -160 -336 -160 -368
WIRE 16 -336 16 -368
WIRE 96 -320 96 -368
WIRE -160 -224 -160 -240
WIRE -160 -16 -160 -32
WIRE -64 224 -64 160
WIRE -64 224 -80 224
WIRE 32 224 -64 224
WIRE 272 224 272 160
WIRE 272 224 256 224
WIRE 368 224 272 224
WIRE -80 256 -80 224
WIRE 32 256 32 224
WIRE 256 256 256 224
WIRE 368 256 368 224
WIRE -80 368 -80 352
WIRE -16 368 -80 368
WIRE 32 368 32 336
WIRE 32 368 -16 368
WIRE 256 368 256 352
WIRE 320 368 256 368
WIRE 368 368 368 336
WIRE 368 368 320 368
FLAG 320 368 0
FLAG 336 416 0
FLAG 272 80 0
FLAG 192 352 0
FLAG 192 256 0
FLAG -16 368 0
FLAG 0 416 0
FLAG -64 80 0
FLAG -144 352 0
FLAG -144 256 0
FLAG -144 -512 0
FLAG -224 -336 0
FLAG -224 -240 0
FLAG -224 -224 0
FLAG -224 -128 0
FLAG -224 -32 0
FLAG -224 -16 0
FLAG -48 -336 0
FLAG -48 -240 0
FLAG 16 -240 0
FLAG -160 80 0
FLAG 96 -240 0
FLAG -224 96 0
FLAG -224 80 0
SYMBOL qnn-spice/SNSPD/snspdWithPhotonPort 256 304 R0
SYMATTR InstName U1
SYMBOL current 432 -160 R0
SYMATTR InstName I1
SYMATTR Value 25µ
SYMBOL Res 352 240 R0
SYMATTR InstName R1
SYMATTR Value 5
SYMBOL qnn-spice/SNSPD/snspdWithPhotonPort -80 304 R0
SYMATTR InstName U2
SYMBOL current -64 80 R0
SYMATTR InstName I2
SYMATTR Value PULSE(0 100µ 1n 20p 1p 1)
SYMBOL Res 16 240 R0
SYMATTR InstName R2
SYMATTR Value 27
SYMBOL current 272 80 R0
SYMATTR InstName I3
SYMATTR Value PULSE(0 500u 1n 20p 1p 1)
SYMBOL qnn-spice/SNSPD/snspdWithPhotonPort -160 -288 R0
SYMATTR InstName U3
SYMBOL current -144 -512 R0
SYMATTR InstName I4
SYMATTR Value PULSE(0 10u 1n 20p 1p 100p)
SYMBOL qnn-spice/SNSPD/snspdWithPhotonPort -160 -176 R0
SYMATTR InstName U4
SYMBOL qnn-spice/SNSPD/snspdWithPhotonPort -160 -80 R0
SYMATTR InstName U5
SYMBOL qnn-spice/SNSPD/snspdWithPhotonPort -160 32 R0
SYMATTR InstName U6
SYMBOL qnn-spice/SNSPD/snspdWithPhotonPort 16 -288 R0
SYMATTR InstName U7
SYMBOL Res 80 -336 R0
SYMATTR InstName R3
SYMATTR Value 50
TEXT 416 456 Left 2 !.tran 40n
