Version 4
SHEET 1 1504 1276
WIRE 64 352 48 352
WIRE 160 352 144 352
WIRE 240 352 192 352
WIRE 256 352 240 352
WIRE 528 352 384 352
WIRE 736 352 608 352
WIRE 736 384 736 352
FLAG 736 384 0
FLAG 48 352 0
FLAG 960 208 0
FLAG 960 128 FREQ
FLAG 64 192 0
FLAG 192 352 IN
FLAG 144 192 REF
SYMBOL 2_PORT_TEST 320 352 R0
SYMATTR InstName X1
SYMBOL Res 624 336 R90
WINDOW 0 0 56 VBottom 2
WINDOW 3 32 56 VTop 2
SYMATTR InstName R1
SYMATTR Value 50
SYMBOL Voltage 160 352 R90
WINDOW 0 -32 56 VBottom 2
WINDOW 3 98 56 VTop 2
WINDOW 123 54 56 VTop 2
WINDOW 39 76 56 VTop 2
SYMATTR InstName V1
SYMATTR Value SINE(0 1 {freq} 0 0)
SYMATTR Value2 AC 1
SYMATTR SpiceLine Rser=0
SYMBOL bv 960 112 R0
SYMATTR InstName B1
SYMATTR Value V={freq}
SYMBOL Voltage 160 192 R90
WINDOW 0 -32 56 VBottom 2
WINDOW 3 98 56 VTop 2
WINDOW 123 54 56 VTop 2
WINDOW 39 76 56 VTop 2
SYMATTR InstName V2
SYMATTR Value SINE(0 1 {freq} 0 0)
SYMATTR Value2 AC 1
SYMATTR SpiceLine Rser=50
SYMBOL Res 256 336 R90
WINDOW 0 0 56 VBottom 2
WINDOW 3 32 56 VTop 2
SYMATTR InstName R2
SYMATTR Value 50
TEXT 256 456 Left 2 !.tran 0 {3/freq} 0 {1/100/freq}
TEXT 256 480 Left 2 ;.step param freq list 500e6 880e6 1e9
TEXT 424 80 Left 2 !.measure tran MyRoValue param Ro
TEXT 424 120 Left 2 !.param Ro 1e-6
TEXT 256 528 Left 2 ;.param freq 500e6
TEXT 256 608 Left 2 !.step param freq list 10e8 50e8 10e9 20e9 50e9 70e9 100e9
