Version 4
SHEET 1 1504 828
WIRE 64 352 48 352
WIRE 256 352 144 352
WIRE 528 352 384 352
WIRE 736 352 608 352
WIRE 736 384 736 352
WIRE 1200 528 1152 528
WIRE 1312 528 1280 528
WIRE 1152 592 1152 528
WIRE 1152 592 1056 592
WIRE 1312 592 1312 528
WIRE 1376 592 1312 592
WIRE 1056 624 1056 592
WIRE 1056 624 944 624
WIRE 1376 624 1376 592
WIRE 1424 624 1376 624
WIRE 1056 640 1056 624
WIRE 1376 640 1376 624
WIRE 1152 656 1152 592
WIRE 1200 656 1152 656
WIRE 1312 656 1312 592
WIRE 1312 656 1264 656
WIRE 80 704 64 704
WIRE 272 704 160 704
WIRE 544 704 400 704
WIRE 752 704 624 704
WIRE 1056 720 1056 704
WIRE 1376 720 1376 704
WIRE 752 736 752 704
FLAG 736 384 0
FLAG 48 352 0
FLAG 752 736 0
FLAG 64 704 0
FLAG 272 704 P1
FLAG 400 704 P2
FLAG 944 624 P1
FLAG 1424 624 P2
FLAG 1376 720 0
FLAG 1056 720 0
SYMBOL 2_PORT_TEST 320 352 R0
SYMATTR InstName X1
SYMBOL Res 624 336 R90
WINDOW 0 0 56 VBottom 2
WINDOW 3 32 56 VTop 2
SYMATTR InstName R1
SYMATTR Value 50
SYMBOL Voltage 160 352 R90
WINDOW 0 -32 56 VBottom 2
WINDOW 3 32 56 Invisible 2
WINDOW 123 54 56 VTop 2
WINDOW 39 76 56 VTop 2
SYMATTR InstName V1
SYMATTR Value 0
SYMATTR Value2 AC 1
SYMATTR SpiceLine Rser=50
SYMBOL Res 640 688 R90
WINDOW 0 0 56 VBottom 2
WINDOW 3 32 56 VTop 2
SYMATTR InstName R2
SYMATTR Value 50
SYMBOL Voltage 176 704 R90
WINDOW 0 -32 56 VBottom 2
WINDOW 3 98 56 VTop 2
WINDOW 123 54 56 VTop 2
WINDOW 39 76 56 VTop 2
SYMATTR InstName V2
SYMATTR Value 0
SYMATTR Value2 AC 1
SYMATTR SpiceLine Rser=50
SYMBOL Cap 1040 640 R0
SYMATTR InstName C1
SYMATTR Value 3.2e-12
SYMBOL Cap 1264 640 R90
WINDOW 0 0 32 VBottom 2
WINDOW 3 32 32 VTop 2
SYMATTR InstName C2
SYMATTR Value 82.25e-15
SYMBOL Cap 1360 640 R0
SYMATTR InstName C3
SYMATTR Value 3.222e-12
SYMBOL ind 1184 544 R270
WINDOW 0 32 56 VTop 2
WINDOW 3 5 56 VBottom 2
SYMATTR InstName L1
SYMATTR Value 8.893e-9
TEXT 256 456 Left 2 !.ac oct 10000 0.1G 10G
TEXT 256 480 Left 2 !.net i(R1) V1
TEXT 256 512 Left 2 !.net i(R2) V2
